13
i
Au      8.20673602       6.84732546       5.55643998       79 
Au      5.39984331       4.15142526       7.54256605       79 
Au      6.07245855       7.97753044       4.01948222       79 
Au      5.41130921       5.64910312      10.01981932       79 
Au      7.84613418       3.98472768       9.06768848       79 
Au      5.99070551       8.26167910       9.15639463       79 
Cu      8.11390219       8.53182282       7.61550098       29 
Cu      3.97734424       7.55323530       5.51520398       29 
Cu      6.01389011       8.25822616       6.55877952       29 
Cu      7.10286680       6.23998320       8.02302848       29 
Cu      4.50685384       6.58204624       7.74009799       29 
Cu      5.79868220       5.88443721       5.65280114       29 
Cu      7.90146540       4.49782256       6.56069489       29 
